<?xml version="1.0" encoding="UTF-8"?>

<!-- generated on Fri May 27 05:39:28 2016 by SUMO netconvert Version 0.25.0
<?xml version="1.0" encoding="UTF-8"?>

<configuration xmlns:xsi="http://www.w3.org/2001/XMLSchema-instance" xsi:noNamespaceSchemaLocation="http://sumo.dlr.de/xsd/netconvertConfiguration.xsd">

    <input>
        <type-files value="/home/martin/sumo-0.25.0/data/typemap/osmNetconvert.typ.xml"/>
        <osm-files value="avellaneda.osm"/>
    </input>

    <output>
        <output-file value="pruave.net.xml"/>
        <output.street-names value="true"/>
        <output.original-names value="true"/>
    </output>

    <projection>
        <proj.utm value="true"/>
    </projection>

</configuration>
-->

<net version="0.25" xmlns:xsi="http://www.w3.org/2001/XMLSchema-instance" xsi:noNamespaceSchemaLocation="http://sumo.dlr.de/xsd/net_file.xsd">

    <location netOffset="-373928.66,3837009.27" convBoundary="0.00,0.00,1753.88,1466.29" origBoundary="-58.375905,-34.667344,-58.356661,-34.654152" projParameter="+proj=utm +zone=21 +ellps=WGS84 +datum=WGS84 +units=m +no_defs"/>

    <type id="highway.bridleway" priority="1" numLanes="1" speed="2.78" allow="pedestrian" oneway="1" width="2.00"/>
    <type id="highway.bus_guideway" priority="1" numLanes="1" speed="8.33" allow="bus" oneway="1"/>
    <type id="highway.cycleway" priority="1" numLanes="1" speed="5.56" allow="bicycle" oneway="0" width="1.00"/>
    <type id="highway.footway" priority="1" numLanes="1" speed="8.33" allow="pedestrian" oneway="1" width="2.00"/>
    <type id="highway.ford" priority="1" numLanes="1" speed="2.78" allow="army" oneway="0"/>
    <type id="highway.living_street" priority="3" numLanes="1" speed="2.78" disallow="tram rail_urban rail rail_electric ship" oneway="0"/>
    <type id="highway.motorway" priority="13" numLanes="2" speed="44.44" allow="private emergency authority army vip passenger hov taxi bus coach delivery truck trailer motorcycle evehicle custom1 custom2" oneway="1"/>
    <type id="highway.motorway_link" priority="12" numLanes="1" speed="22.22" allow="private emergency authority army vip passenger hov taxi bus coach delivery truck trailer motorcycle evehicle custom1 custom2" oneway="1"/>
    <type id="highway.path" priority="1" numLanes="1" speed="2.78" allow="bicycle pedestrian" oneway="1" width="2.00"/>
    <type id="highway.pedestrian" priority="1" numLanes="1" speed="8.33" allow="pedestrian" oneway="1" width="2.00"/>
    <type id="highway.primary" priority="9" numLanes="2" speed="27.78" disallow="tram rail_urban rail rail_electric ship" oneway="0"/>
    <type id="highway.primary_link" priority="8" numLanes="1" speed="22.22" disallow="tram rail_urban rail rail_electric ship" oneway="0"/>
    <type id="highway.raceway" priority="14" numLanes="2" speed="83.33" allow="vip" oneway="0"/>
    <type id="highway.residential" priority="4" numLanes="1" speed="13.89" disallow="tram rail_urban rail rail_electric ship" oneway="0"/>
    <type id="highway.secondary" priority="7" numLanes="2" speed="27.78" disallow="tram rail_urban rail rail_electric ship" oneway="0"/>
    <type id="highway.secondary_link" priority="6" numLanes="1" speed="22.22" disallow="tram rail_urban rail rail_electric ship" oneway="0"/>
    <type id="highway.service" priority="2" numLanes="1" speed="5.56" allow="delivery bicycle pedestrian" oneway="0"/>
    <type id="highway.services" priority="1" numLanes="1" speed="8.33" disallow="tram rail_urban rail rail_electric ship" oneway="0"/>
    <type id="highway.stairs" priority="1" numLanes="1" speed="1.39" allow="pedestrian" oneway="1" width="2.00"/>
    <type id="highway.step" priority="1" numLanes="1" speed="1.39" allow="pedestrian" oneway="1" width="2.00"/>
    <type id="highway.steps" priority="1" numLanes="1" speed="1.39" allow="pedestrian" oneway="1" width="2.00"/>
    <type id="highway.tertiary" priority="6" numLanes="1" speed="22.22" disallow="tram rail_urban rail rail_electric ship" oneway="0"/>
    <type id="highway.tertiary_link" priority="5" numLanes="1" speed="22.22" disallow="tram rail_urban rail rail_electric ship" oneway="0"/>
    <type id="highway.track" priority="1" numLanes="1" speed="5.56" disallow="tram rail_urban rail rail_electric ship" oneway="0"/>
    <type id="highway.trunk" priority="11" numLanes="2" speed="27.78" disallow="tram rail_urban rail rail_electric bicycle pedestrian ship" oneway="0"/>
    <type id="highway.trunk_link" priority="10" numLanes="1" speed="22.22" disallow="tram rail_urban rail rail_electric bicycle pedestrian ship" oneway="0"/>
    <type id="highway.unclassified" priority="5" numLanes="1" speed="13.89" disallow="tram rail_urban rail rail_electric ship" oneway="0"/>
    <type id="highway.unsurfaced" priority="1" numLanes="1" speed="8.33" disallow="tram rail_urban rail rail_electric ship" oneway="0"/>
    <type id="railway.light_rail" priority="15" numLanes="1" speed="27.78" allow="rail_urban" oneway="1"/>
    <type id="railway.preserved" priority="15" numLanes="1" speed="27.78" allow="rail" oneway="1"/>
    <type id="railway.rail" priority="15" numLanes="1" speed="83.33" allow="rail rail_electric" oneway="1"/>
    <type id="railway.subway" priority="15" numLanes="1" speed="27.78" allow="rail_urban" oneway="1"/>
    <type id="railway.tram" priority="15" numLanes="1" speed="13.89" allow="tram" oneway="1"/>

    <edge id=":-8712_0" function="internal">
        <lane id=":-8712_0_0" index="0" disallow="tram rail_urban rail rail_electric ship" speed="13.89" length="3.80" shape="427.91,1015.02 426.75,1019.41"/>
        <lane id=":-8712_0_1" index="1" disallow="tram rail_urban rail rail_electric ship" speed="13.89" length="3.80" shape="427.91,1015.02 425.21,1016.49"/>
    </edge>
    <edge id=":-8712_2" function="internal">
        <lane id=":-8712_2_0" index="0" disallow="tram rail_urban rail rail_electric ship" speed="11.11" length="3.11" shape="427.91,1015.02 426.45,1014.86 425.72,1014.33 425.71,1013.59"/>
    </edge>
    <edge id=":-8712_5" function="internal">
        <lane id=":-8712_5_0" index="0" speed="11.11" length="1.63" shape="425.71,1013.59 425.71,1013.42 426.41,1012.14"/>
    </edge>
    <edge id=":-8712_3" function="internal">
        <lane id=":-8712_3_0" index="0" disallow="tram rail_urban rail rail_electric ship" speed="13.89" length="4.53" shape="422.14,1010.64 426.41,1012.14"/>
    </edge>
    <edge id=":-8712_4" function="internal">
        <lane id=":-8712_4_0" index="0" disallow="tram rail_urban rail rail_electric ship" speed="16.67" length="2.41" shape="423.67,1013.57 425.15,1013.72 425.90,1014.26"/>
    </edge>
    <edge id=":-8712_6" function="internal">
        <lane id=":-8712_6_0" index="0" speed="16.67" length="2.41" shape="425.90,1014.26 425.92,1015.18 425.21,1016.49"/>
    </edge>
    <edge id=":-8717_0" function="internal">
        <lane id=":-8717_0_0" index="0" disallow="tram rail_urban rail rail_electric ship" speed="20.84" length="13.20" shape="283.31,734.14 279.69,732.72 277.59,730.50 275.83,728.09 273.24,726.08"/>
    </edge>
    <edge id=":-8717_1" function="internal">
        <lane id=":-8717_1_0" index="0" disallow="tram rail_urban rail rail_electric ship" speed="20.84" length="2.33" shape="283.87,730.88 281.68,730.08"/>
    </edge>
    <edge id=":-8717_2" function="internal">
        <lane id=":-8717_2_0" index="0" disallow="tram rail_urban rail rail_electric ship" speed="27.78" length="1.92" shape="283.87,730.88 282.79,729.86 282.66,729.45"/>
    </edge>
    <edge id=":-8717_9" function="internal">
        <lane id=":-8717_9_0" index="0" speed="20.84" length="12.80" shape="281.68,730.08 280.34,729.58 278.52,727.18 278.41,723.68 280.00,719.09"/>
    </edge>
    <edge id=":-8717_10" function="internal">
        <lane id=":-8717_10_0" index="0" speed="27.78" length="2.90" shape="282.66,729.45 282.52,728.98 283.07,728.23 284.43,727.63"/>
    </edge>
    <edge id=":-8717_3" function="internal">
        <lane id=":-8717_3_0" index="0" disallow="tram rail_urban rail rail_electric ship" speed="20.84" length="5.37" shape="282.98,720.51 282.52,721.97 282.71,723.10 283.53,723.91 284.99,724.38"/>
    </edge>
    <edge id=":-8717_4" function="internal">
        <lane id=":-8717_4_0" index="0" disallow="tram rail_urban rail rail_electric ship" speed="13.89" length="12.67" shape="282.98,720.51 280.89,723.97 278.57,726.06 276.02,726.76 273.24,726.08"/>
    </edge>
    <edge id=":-8717_5" function="internal">
        <lane id=":-8717_5_0" index="0" disallow="tram rail_urban rail rail_electric ship" speed="13.89" length="4.82" shape="282.98,720.51 281.70,721.27 280.78,721.29 280.21,720.56 280.00,719.09"/>
    </edge>
    <edge id=":-8717_6" function="internal">
        <lane id=":-8717_6_0" index="0" disallow="tram rail_urban rail rail_electric ship" speed="20.84" length="8.78" shape="272.91,734.13 274.10,731.11 274.56,728.76 274.27,727.08 273.24,726.08"/>
    </edge>
    <edge id=":-8717_7" function="internal">
        <lane id=":-8717_7_0" index="0" disallow="tram rail_urban rail rail_electric ship" speed="20.84" length="16.63" shape="272.91,734.13 275.20,729.24 276.97,725.48 278.48,722.28 280.00,719.09"/>
    </edge>
    <edge id=":-8717_8" function="internal">
        <lane id=":-8717_8_0" index="0" disallow="tram rail_urban rail rail_electric ship" speed="27.78" length="12.37" shape="275.90,735.53 277.95,731.78 280.05,729.22 282.21,727.84 284.43,727.63"/>
    </edge>
    <edge id=":-8724_0" function="internal">
        <lane id=":-8724_0_0" index="0" disallow="tram rail_urban rail rail_electric ship" speed="13.89" length="4.78" shape="575.46,1081.99 572.64,1085.85"/>
    </edge>
    <edge id=":-8724_1" function="internal">
        <lane id=":-8724_1_0" index="0" disallow="tram rail_urban rail rail_electric ship" speed="13.89" length="4.73" shape="571.13,1081.37 572.64,1085.85"/>
    </edge>
    <edge id=":-8725_0" function="internal">
        <lane id=":-8725_0_0" index="0" disallow="tram rail_urban rail rail_electric ship" speed="15.28" length="6.66" shape="583.13,786.55 584.34,787.33 585.48,787.50 586.54,787.08 587.52,786.05"/>
        <lane id=":-8725_0_1" index="1" disallow="tram rail_urban rail rail_electric ship" speed="15.28" length="6.66" shape="583.13,786.55 585.45,788.26 587.41,789.06 589.00,788.96 590.21,787.96"/>
    </edge>
    <edge id=":-8725_2" function="internal">
        <lane id=":-8725_2_0" index="0" disallow="tram rail_urban rail rail_electric ship" speed="13.89" length="16.27" shape="583.13,786.55 586.09,789.16 589.18,791.99 592.22,794.88 595.02,797.66"/>
    </edge>
    <edge id=":-8725_3" function="internal">
        <lane id=":-8725_3_0" index="0" disallow="tram rail_urban rail rail_electric ship" speed="16.67" length="8.23" shape="583.21,790.94 590.21,787.96"/>
        <lane id=":-8725_3_1" index="1" disallow="tram rail_urban rail rail_electric ship" speed="16.67" length="8.23" shape="585.46,793.36 592.90,789.86"/>
        <lane id=":-8725_3_2" index="2" disallow="tram rail_urban rail rail_electric ship" speed="16.67" length="8.23" shape="587.70,795.78 595.60,791.77"/>
    </edge>
    <edge id=":-8725_6" function="internal">
        <lane id=":-8725_6_0" index="0" disallow="tram rail_urban rail rail_electric ship" speed="15.28" length="5.75" shape="589.94,798.20 591.36,797.14 592.68,796.70 593.90,796.87 595.02,797.66"/>
    </edge>
    <edge id=":-8740_0" function="internal">
        <lane id=":-8740_0_0" index="0" disallow="tram rail_urban rail rail_electric ship" speed="13.89" length="5.08" shape="331.94,617.70 331.52,619.01 331.62,620.15 332.24,621.13 333.38,621.94"/>
    </edge>
    <edge id=":-8740_1" function="internal">
        <lane id=":-8740_1_0" index="0" disallow="tram rail_urban rail rail_electric ship" speed="13.89" length="6.25" shape="331.94,617.70 329.23,623.34"/>
    </edge>
    <edge id=":-8740_2" function="internal">
        <lane id=":-8740_2_0" index="0" disallow="tram rail_urban rail rail_electric ship" speed="13.89" length="2.41" shape="331.94,617.70 330.65,618.46 329.73,618.47"/>
    </edge>
    <edge id=":-8740_9" function="internal">
        <lane id=":-8740_9_0" index="0" speed="13.89" length="2.41" shape="329.73,618.47 329.17,617.73 328.97,616.26"/>
    </edge>
    <edge id=":-8740_3" function="internal">
        <lane id=":-8740_3_0" index="0" disallow="tram rail_urban rail rail_electric ship" speed="13.89" length="5.01" shape="324.81,617.71 326.12,618.11 327.25,618.01 328.20,617.39 328.97,616.26"/>
    </edge>
    <edge id=":-8740_4" function="internal">
        <lane id=":-8740_4_0" index="0" disallow="tram rail_urban rail rail_electric ship" speed="13.89" length="9.56" shape="324.81,617.71 333.38,621.94"/>
    </edge>
    <edge id=":-8740_5" function="internal">
        <lane id=":-8740_5_0" index="0" disallow="tram rail_urban rail rail_electric ship" speed="13.89" length="7.92" shape="324.81,617.71 327.26,619.08 328.81,620.48 329.47,621.89 329.23,623.34"/>
    </edge>
    <edge id=":-8740_6" function="internal">
        <lane id=":-8740_6_0" index="0" disallow="tram rail_urban rail rail_electric ship" speed="13.89" length="6.28" shape="326.25,621.92 328.97,616.26"/>
    </edge>
    <edge id=":-8740_7" function="internal">
        <lane id=":-8740_7_0" index="0" disallow="tram rail_urban rail rail_electric ship" speed="13.89" length="3.13" shape="326.25,621.92 327.22,620.81 328.73,620.45 328.83,620.47"/>
    </edge>
    <edge id=":-8740_8" function="internal">
        <lane id=":-8740_8_0" index="0" disallow="tram rail_urban rail rail_electric ship" speed="13.89" length="2.41" shape="326.25,621.92 327.52,621.16 328.44,621.14"/>
    </edge>
    <edge id=":-8740_10" function="internal">
        <lane id=":-8740_10_0" index="0" speed="13.89" length="4.81" shape="328.83,620.47 330.79,620.82 333.38,621.94"/>
    </edge>
    <edge id=":-8740_11" function="internal">
        <lane id=":-8740_11_0" index="0" speed="13.89" length="2.41" shape="328.44,621.14 329.01,621.86 329.23,623.34"/>
    </edge>
    <edge id=":-8743_0" function="internal">
        <lane id=":-8743_0_0" index="0" disallow="tram rail_urban rail rail_electric ship" speed="11.11" length="5.87" shape="482.89,1004.60 478.23,1001.04"/>
    </edge>
    <edge id=":-8743_1" function="internal">
        <lane id=":-8743_1_0" index="0" disallow="tram rail_urban rail rail_electric ship" speed="8.33" length="4.97" shape="483.15,1000.31 478.23,1001.04"/>
    </edge>
    <edge id=":-8744_0" function="internal">
        <lane id=":-8744_0_0" index="0" disallow="tram rail_urban rail rail_electric ship" speed="13.89" length="6.20" shape="1069.25,846.24 1065.67,851.30"/>
    </edge>
    <edge id=":-8744_1" function="internal">
        <lane id=":-8744_1_0" index="0" disallow="tram rail_urban rail rail_electric ship" speed="13.89" length="1.71" shape="1064.67,847.03 1065.81,847.89 1065.95,848.14"/>
    </edge>
    <edge id=":-8744_2" function="internal">
        <lane id=":-8744_2_0" index="0" speed="13.89" length="3.42" shape="1065.95,848.14 1066.36,848.89 1066.31,850.02 1065.67,851.30"/>
    </edge>
    <edge id=":-8751_0" function="internal">
        <lane id=":-8751_0_0" index="0" disallow="tram rail_urban rail rail_electric ship" speed="13.89" length="9.01" shape="504.76,1028.79 500.04,1021.11"/>
    </edge>
    <edge id=":-8751_1" function="internal">
        <lane id=":-8751_1_0" index="0" allow="private emergency authority army vip passenger hov taxi bus coach delivery truck trailer motorcycle evehicle custom1 custom2" speed="16.67" length="9.26" shape="504.76,1028.79 503.62,1019.60"/>
    </edge>
    <edge id=":-8757_0" function="internal">
        <lane id=":-8757_0_0" index="0" disallow="tram rail_urban rail rail_electric ship" speed="13.89" length="9.18" shape="506.81,278.54 500.04,284.73"/>
    </edge>
    <edge id=":-8757_1" function="internal">
        <lane id=":-8757_1_0" index="0" disallow="tram rail_urban rail rail_electric ship" speed="13.89" length="5.01" shape="506.81,278.54 504.52,279.97 502.25,280.36"/>
    </edge>
    <edge id=":-8757_2" function="internal">
        <lane id=":-8757_2_0" index="0" disallow="tram rail_urban rail rail_electric ship" speed="13.89" length="2.41" shape="506.81,278.54 505.33,278.71 504.49,278.35"/>
    </edge>
    <edge id=":-8757_9" function="internal">
        <lane id=":-8757_9_0" index="0" speed="13.89" length="5.15" shape="502.25,280.36 500.00,279.70 497.78,277.98"/>
    </edge>
    <edge id=":-8757_10" function="internal">
        <lane id=":-8757_10_0" index="0" speed="13.89" length="2.41" shape="504.49,278.35 504.26,277.46 504.67,276.02"/>
    </edge>
    <edge id=":-8757_3" function="internal">
        <lane id=":-8757_3_0" index="0" disallow="tram rail_urban rail rail_electric ship" speed="13.89" length="5.12" shape="500.12,275.66 501.26,276.55 502.40,276.90 503.53,276.73 504.67,276.02"/>
    </edge>
    <edge id=":-8757_4" function="internal">
        <lane id=":-8757_4_0" index="0" disallow="tram rail_urban rail rail_electric ship" speed="13.89" length="10.35" shape="500.12,275.66 501.81,277.94 502.36,280.22 501.77,282.48 500.04,284.73"/>
    </edge>
    <edge id=":-8757_5" function="internal">
        <lane id=":-8757_5_0" index="0" disallow="tram rail_urban rail rail_electric ship" speed="13.89" length="4.82" shape="500.12,275.66 500.41,277.12 500.11,277.99 499.23,278.28 497.78,277.98"/>
    </edge>
    <edge id=":-8757_6" function="internal">
        <lane id=":-8757_6_0" index="0" disallow="tram rail_urban rail rail_electric ship" speed="13.89" length="5.01" shape="497.73,282.36 498.57,281.28 498.86,280.18 498.59,279.08 497.78,277.98"/>
    </edge>
    <edge id=":-8757_7" function="internal">
        <lane id=":-8757_7_0" index="0" disallow="tram rail_urban rail rail_electric ship" speed="13.89" length="9.40" shape="497.73,282.36 504.67,276.02"/>
    </edge>
    <edge id=":-8757_8" function="internal">
        <lane id=":-8757_8_0" index="0" disallow="tram rail_urban rail rail_electric ship" speed="13.89" length="2.52" shape="497.73,282.36 499.20,282.09 500.07,282.39 500.10,282.50"/>
    </edge>
    <edge id=":-8757_11" function="internal">
        <lane id=":-8757_11_0" index="0" speed="13.89" length="2.30" shape="500.10,282.50 500.35,283.27 500.04,284.73"/>
    </edge>
    <edge id=":-8758_0" function="internal">
        <lane id=":-8758_0_0" index="0" disallow="tram rail_urban rail rail_electric ship" speed="13.89" length="4.82" shape="284.15,1102.05 282.70,1102.39 281.82,1102.13 281.50,1101.26 281.74,1099.79"/>
    </edge>
    <edge id=":-8771_0" function="internal">
        <lane id=":-8771_0_0" index="0" disallow="tram rail_urban rail rail_electric ship" speed="13.89" length="4.82" shape="596.34,997.02 594.86,996.90 594.10,996.37 594.06,995.45 594.74,994.13"/>
    </edge>
    <edge id=":-8772_0" function="internal">
        <lane id=":-8772_0_0" index="0" disallow="tram rail_urban rail rail_electric ship" speed="15.28" length="5.41" shape="1061.66,511.11 1060.46,512.10 1059.99,513.16 1060.27,514.27 1061.29,515.45"/>
    </edge>
    <edge id=":-8772_1" function="internal">
        <lane id=":-8772_1_0" index="0" disallow="tram rail_urban rail rail_electric ship" speed="16.67" length="12.66" shape="1059.94,508.29 1057.46,510.41 1056.37,512.49 1055.41,514.75 1053.31,517.36"/>
        <lane id=":-8772_1_1" index="1" disallow="tram rail_urban rail rail_electric ship" speed="16.67" length="12.66" shape="1058.22,505.48 1055.58,507.69 1054.38,509.85 1053.31,512.19 1051.07,514.93"/>
        <lane id=":-8772_1_2" index="2" disallow="tram rail_urban rail rail_electric ship" speed="16.67" length="12.66" shape="1056.51,502.66 1053.70,504.97 1052.39,507.21 1051.22,509.64 1048.83,512.51"/>
        <lane id=":-8772_1_3" index="3" disallow="tram rail_urban rail rail_electric ship" speed="16.67" length="12.66" shape="1054.79,499.84 1051.82,502.25 1050.40,504.57 1049.12,507.09 1046.59,510.08"/>
        <lane id=":-8772_1_4" index="4" disallow="tram rail_urban rail rail_electric ship" speed="16.67" length="12.66" shape="1053.07,497.02 1049.94,499.54 1048.41,501.93 1047.02,504.53 1044.35,507.66"/>
    </edge>
    <edge id=":-8772_6" function="internal">
        <lane id=":-8772_6_0" index="0" disallow="tram rail_urban rail rail_electric ship" speed="20.84" length="24.16" shape="1044.22,498.36 1049.54,503.34 1054.17,508.14 1058.09,512.32 1061.29,515.45"/>
    </edge>
    <edge id=":-8772_7" function="internal">
        <lane id=":-8772_7_0" index="0" disallow="tram rail_urban rail rail_electric ship" speed="22.22" length="8.22" shape="1042.05,500.85 1045.14,503.87 1046.93,506.42 1047.41,508.49 1046.59,510.08"/>
        <lane id=":-8772_7_1" index="1" disallow="tram rail_urban rail rail_electric ship" speed="22.22" length="8.22" shape="1042.05,500.85 1044.06,502.90 1045.12,504.72 1045.21,506.31 1044.35,507.66"/>
        <lane id=":-8772_7_2" index="2" disallow="tram rail_urban rail rail_electric ship" speed="22.22" length="8.22" shape="1042.05,500.85 1042.99,501.93 1043.31,503.02 1043.02,504.12 1042.12,505.23"/>
    </edge>
    <edge id=":-8774_0" function="internal">
        <lane id=":-8774_0_0" index="0" allow="private emergency authority army vip passenger hov taxi bus coach delivery truck trailer motorcycle evehicle custom1 custom2" speed="19.44" length="14.21" shape="283.39,895.68 279.89,894.81 276.44,894.47 272.94,894.53 269.31,894.85"/>
    </edge>
    <edge id=":-8774_1" function="internal">
        <lane id=":-8774_1_0" index="0" allow="private emergency authority army vip passenger hov taxi bus coach delivery truck trailer motorcycle evehicle custom1 custom2" speed="16.67" length="14.17" shape="283.39,895.68 279.95,894.54 276.66,893.45 273.37,892.36 269.94,891.22"/>
    </edge>
    <edge id=":-8775_0" function="internal">
        <lane id=":-8775_0_0" index="0" disallow="tram rail_urban rail rail_electric ship" speed="13.89" length="9.51" shape="777.24,989.20 784.42,995.43"/>
    </edge>
    <edge id=":-8775_1" function="internal">
        <lane id=":-8775_1_0" index="0" disallow="tram rail_urban rail rail_electric ship" speed="13.89" length="7.97" shape="777.24,989.20 779.24,991.20 780.34,992.98 780.55,994.53 779.86,995.85"/>
    </edge>
    <edge id=":-8775_2" function="internal">
        <lane id=":-8775_2_0" index="0" disallow="tram rail_urban rail rail_electric ship" speed="13.89" length="1.16" shape="777.46,993.58 778.46,992.98"/>
    </edge>
    <edge id=":-8775_3" function="internal">
        <lane id=":-8775_3_0" index="0" disallow="tram rail_urban rail rail_electric ship" speed="13.89" length="1.23" shape="777.46,993.58 778.66,993.30"/>
    </edge>
    <edge id=":-8775_4" function="internal">
        <lane id=":-8775_4_0" index="0" speed="13.89" length="6.75" shape="778.46,992.98 778.71,992.83 780.29,992.89 782.19,993.76 784.42,995.43"/>
    </edge>
    <edge id=":-8775_5" function="internal">
        <lane id=":-8775_5_0" index="0" speed="13.89" length="3.59" shape="778.66,993.30 778.91,993.25 779.79,993.51 780.11,994.38 779.86,995.85"/>
    </edge>
    <edge id=":-8779_0" function="internal">
        <lane id=":-8779_0_0" index="0" disallow="tram rail_urban rail rail_electric ship" speed="13.89" length="6.41" shape="360.88,1062.02 359.81,1061.30 358.46,1061.09 356.82,1061.38 354.91,1062.19"/>
    </edge>
    <edge id=":-8779_1" function="internal">
        <lane id=":-8779_1_0" index="0" disallow="tram rail_urban rail rail_electric ship" speed="13.89" length="4.42" shape="360.88,1062.02 357.84,1058.82"/>
    </edge>
    <edge id=":-8779_2" function="internal">
        <lane id=":-8779_2_0" index="0" disallow="tram rail_urban rail rail_electric ship" speed="13.89" length="4.47" shape="353.39,1059.26 357.84,1058.82"/>
    </edge>
    <edge id=":-8779_3" function="internal">
        <lane id=":-8779_3_0" index="0" disallow="tram rail_urban rail rail_electric ship" speed="13.89" length="2.60" shape="353.39,1059.26 354.87,1059.42 355.61,1059.97 355.62,1060.16"/>
    </edge>
    <edge id=":-8779_4" function="internal">
        <lane id=":-8779_4_0" index="0" speed="13.89" length="2.22" shape="355.62,1060.16 355.63,1060.89 354.91,1062.19"/>
    </edge>
    <edge id=":-8786_0" function="internal">
        <lane id=":-8786_0_0" index="0" disallow="tram rail_urban rail rail_electric ship" speed="13.89" length="5.04" shape="1063.30,668.59 1062.13,667.84 1061.01,667.66 1059.94,668.04 1058.93,668.98"/>
    </edge>
    <edge id=":-8786_1" function="internal">
        <lane id=":-8786_1_0" index="0" disallow="tram rail_urban rail rail_electric ship" speed="13.89" length="6.26" shape="1063.30,668.59 1058.55,664.51"/>
    </edge>
    <edge id=":-8786_2" function="internal">
        <lane id=":-8786_2_0" index="0" disallow="tram rail_urban rail rail_electric ship" speed="13.89" length="6.26" shape="1062.92,664.17 1058.93,668.98"/>
    </edge>
    <edge id=":-8786_3" function="internal">
        <lane id=":-8786_3_0" index="0" disallow="tram rail_urban rail rail_electric ship" speed="13.89" length="1.54" shape="1062.92,664.17 1061.89,665.08 1061.73,665.13"/>
    </edge>
    <edge id=":-8786_4" function="internal">
        <lane id=":-8786_4_0" index="0" speed="13.89" length="3.46" shape="1061.73,665.13 1060.82,665.43 1059.71,665.24 1058.55,664.51"/>
    </edge>
    <edge id=":-8789_0" function="internal">
        <lane id=":-8789_0_0" index="0" disallow="tram rail_urban rail rail_electric ship" speed="22.22" length="11.16" shape="508.15,852.55 510.59,853.78 512.81,854.24 514.79,853.90 516.55,852.77"/>
        <lane id=":-8789_0_1" index="1" disallow="tram rail_urban rail rail_electric ship" speed="22.22" length="11.16" shape="508.27,856.26 511.45,857.11 514.27,857.22 516.71,856.58 518.79,855.19"/>
        <lane id=":-8789_0_2" index="2" disallow="tram rail_urban rail rail_electric ship" speed="22.22" length="11.16" shape="508.27,856.26 512.90,857.74 516.57,858.45 519.28,858.41 521.04,857.61"/>
    </edge>
    <edge id=":-8789_3" function="internal">
        <lane id=":-8789_3_0" index="0" disallow="tram rail_urban rail rail_electric ship" speed="16.67" length="2.68" shape="510.23,860.97 511.71,858.26 512.88,856.48 514.30,854.90 516.55,852.77"/>
        <lane id=":-8789_3_1" index="1" disallow="tram rail_urban rail rail_electric ship" speed="16.67" length="2.68" shape="518.78,855.18 518.79,855.19"/>
        <lane id=":-8789_3_2" index="2" disallow="tram rail_urban rail rail_electric ship" speed="16.67" length="2.68" shape="521.02,857.60 521.04,857.61"/>
        <lane id=":-8789_3_3" index="3" disallow="tram rail_urban rail rail_electric ship" speed="16.67" length="2.68" shape="523.27,860.02 523.28,860.03"/>
    </edge>
    <edge id=":-8806_0" function="internal">
        <lane id=":-8806_0_0" index="0" disallow="tram rail_urban rail rail_electric ship" speed="12.50" length="5.35" shape="511.06,571.85 509.62,571.35 508.48,571.50 507.64,572.29 507.12,573.72"/>
    </edge>
    <edge id=":-8806_1" function="internal">
        <lane id=":-8806_1_0" index="0" disallow="tram rail_urban rail rail_electric ship" speed="11.11" length="9.88" shape="511.06,571.85 502.05,567.79"/>
    </edge>
    <edge id=":-8806_2" function="internal">
        <lane id=":-8806_2_0" index="0" disallow="tram rail_urban rail rail_electric ship" speed="12.50" length="8.33" shape="511.06,571.85 508.44,570.29 506.77,568.79 506.04,567.34 506.26,565.94"/>
    </edge>
    <edge id=":-8806_3" function="internal">
        <lane id=":-8806_3_0" index="0" disallow="tram rail_urban rail rail_electric ship" speed="13.89" length="6.63" shape="509.21,567.43 507.12,573.72"/>
    </edge>
    <edge id=":-8806_4" function="internal">
        <lane id=":-8806_4_0" index="0" disallow="tram rail_urban rail rail_electric ship" speed="12.50" length="2.67" shape="509.21,567.43 508.27,568.42 507.01,568.75"/>
    </edge>
    <edge id=":-8806_5" function="internal">
        <lane id=":-8806_5_0" index="0" disallow="tram rail_urban rail rail_electric ship" speed="13.89" length="2.19" shape="509.21,567.43 507.91,568.16 507.21,568.16"/>
    </edge>
    <edge id=":-8806_9" function="internal">
        <lane id=":-8806_9_0" index="0" speed="12.50" length="5.10" shape="507.01,568.75 506.76,568.82 504.69,568.61 502.05,567.79"/>
    </edge>
    <edge id=":-8806_10" function="internal">
        <lane id=":-8806_10_0" index="0" speed="13.89" length="2.62" shape="507.21,568.16 506.99,568.16 506.44,567.42 506.26,565.94"/>
    </edge>
    <edge id=":-8806_6" function="internal">
        <lane id=":-8806_6_0" index="0" disallow="tram rail_urban rail rail_electric ship" speed="12.50" length="6.09" shape="503.89,573.03 504.11,571.13 503.88,569.62 503.19,568.51 502.05,567.79"/>
    </edge>
    <edge id=":-8806_7" function="internal">
        <lane id=":-8806_7_0" index="0" disallow="tram rail_urban rail rail_electric ship" speed="13.89" length="7.47" shape="503.89,573.03 506.26,565.94"/>
    </edge>
    <edge id=":-8806_8" function="internal">
        <lane id=":-8806_8_0" index="0" disallow="tram rail_urban rail rail_electric ship" speed="13.89" length="2.64" shape="503.89,573.03 504.96,571.99 505.85,571.76 506.03,571.91"/>
    </edge>
    <edge id=":-8806_11" function="internal">
        <lane id=":-8806_11_0" index="0" speed="13.89" length="2.17" shape="506.03,571.91 506.57,572.34 507.12,573.72"/>
    </edge>
    <edge id=":-8816_0" function="internal">
        <lane id=":-8816_0_0" index="0" disallow="tram rail_urban rail rail_electric ship" speed="13.89" length="5.30" shape="584.31,433.51 583.73,434.90 583.79,436.04 584.49,436.94 585.85,437.60"/>
    </edge>
    <edge id=":-8816_1" function="internal">
        <lane id=":-8816_1_0" index="0" disallow="tram rail_urban rail rail_electric ship" speed="13.89" length="7.12" shape="584.31,433.51 580.57,439.57"/>
    </edge>
    <edge id=":-8816_2" function="internal">